data_ARAKAH

_cell_length_a     17.2452
_cell_length_b     17.2452
_cell_length_c     15.4338
_cell_angle_alpha  90.0
_cell_angle_beta   90.0
_cell_angle_gamma  90.0
_cell_volume       4589.96463

_symmetry_cell_setting          triclinic
_symmetry_space_group_name_Hall 'P1'
_symmetry_space_group_name_H-M  'P1'
_symmetry_Int_Tables_number     1

loop_
_symmetry_equiv_pos_as_xyz
 'x,y,z'

loop_
_atom_site_label
_atom_site_type_symbol
_atom_site_fract_x
_atom_site_fract_y
_atom_site_fract_z
_atom_site_charge
_atom_site_polarization

O1        O         0.117013    0.252114    0.294571    -0.535179   1.076829   
O2        O         0.152251    0.259178    0.155841    -0.564136   1.156620   
O3        O         0.681017    0.228394    0.085477    -0.561326   1.146544   
O4        O         0.752114    0.382986    0.044571    -0.535195   1.076864   
O5        O         0.600429    0.271090    0.981155    -0.555361   1.039591   
O6        O         0.759178    0.347749    0.905841    -0.564140   1.156626   
O7        O         0.247886    0.617014    0.544571    -0.535140   1.076846   
O8        O         0.228910    0.100429    0.231155    -0.555369   1.039579   
O9        O         0.240822    0.652251    0.405841    -0.564150   1.156635   
O10       O         0.271607    0.181016    0.335476    -0.561359   1.146567   
O11       O         0.399572    0.728910    0.481156    -0.555328   1.039557   
O12       O         0.318984    0.771607    0.585477    -0.561313   1.146547   
O13       O         0.882987    0.747886    0.794571    -0.535118   1.076815   
O14       O         0.847749    0.740822    0.655841    -0.564157   1.156631   
O15       O         0.771090    0.899571    0.731156    -0.555309   1.039553   
O16       O         0.728394    0.818983    0.835477    -0.561335   1.146564   
O17       O         0.617014    0.247886    0.455429    -0.535195   1.076864   
O18       O         0.100429    0.228910    0.768844    -0.555309   1.039554   
O19       O         0.652251    0.240822    0.594159    -0.564140   1.156626   
O20       O         0.181017    0.271606    0.664523    -0.561336   1.146564   
O21       O         0.252114    0.117013    0.705429    -0.535117   1.076814   
O22       O         0.259178    0.152251    0.844159    -0.564158   1.156632   
O23       O         0.899571    0.771090    0.268845    -0.555370   1.039579   
O24       O         0.347749    0.759178    0.094159    -0.564150   1.156635   
O25       O         0.818984    0.728393    0.164524    -0.561358   1.146566   
O26       O         0.747886    0.882987    0.205429    -0.535180   1.076832   
O27       O         0.740822    0.847749    0.344159    -0.564136   1.156623   
O28       O         0.382986    0.752114    0.955429    -0.535139   1.076846   
O29       O         0.271090    0.600428    0.018844    -0.555328   1.039554   
O30       O         0.228393    0.681016    0.914523    -0.561313   1.146547   
O31       O         0.728910    0.399571    0.518845    -0.555360   1.039590   
O32       O         0.771606    0.318983    0.414523    -0.561326   1.146545   
C33       C         0.099276    0.256759    0.215616    0.563932    0.853942   
C34       C         0.030221    0.219684    0.035675    -0.062371   1.075066   
C35       C         0.015150    0.261555    0.191380    -0.073575   1.068289   
C36       C         0.413166    0.247170    0.168219    0.196292    0.992459   
C37       C         0.550297    0.252883    0.124506    -0.057261   1.066645   
C38       C         0.902514    0.250702    0.094102    0.199115    0.986824   
C39       C         0.370718    0.189475    0.007114    -0.151165   1.094620   
C40       C         0.613349    0.250288    0.057581    0.574142    0.861479   
C41       C         0.434491    0.271932    0.252440    -0.170672   1.130411   
C42       C         0.984768    0.244042    0.107255    0.024587    1.025718   
C43       C         0.853269    0.273419    0.162846    -0.148061   1.138348   
C44       C         0.884215    0.290300    0.242925    -0.060130   1.062690   
C45       C         0.511350    0.285257    0.272003    -0.049526   1.032594   
C46       C         0.447762    0.206336    0.021804    -0.058386   1.039799   
C47       C         0.568823    0.275512    0.207983    -0.086542   1.102408   
C48       C         0.471436    0.236282    0.103138    0.021429    1.027227   
C49       C         0.316691    0.204658    0.073099    0.112601    0.997336   
C50       C         0.964681    0.284483    0.256495    -0.080835   1.056432   
C51       C         0.995863    0.205016    0.956622    -0.141197   1.060628   
C52       C         0.915117    0.213357    0.949148    0.111017    0.959327   
C53       C         0.243242    0.599277    0.465616    0.563902    0.853960   
C54       C         0.247118    0.050297    0.374506    -0.057294   1.066653   
C55       C         0.249298    0.402515    0.344103    0.199069    0.986841   
C56       C         0.249712    0.113349    0.307581    0.574201    0.861462   
C57       C         0.294984    0.495864    0.206622    -0.141274   1.060656   
C58       C         0.255958    0.484768    0.357256    0.024705    1.025676   
C59       C         0.280316    0.530221    0.285675    -0.062370   1.075056   
C60       C         0.226581    0.353269    0.412846    -0.148065   1.138332   
C61       C         0.209700    0.384216    0.492925    -0.060077   1.062676   
C62       C         0.214743    0.011350    0.522003    -0.049529   1.032616   
C63       C         0.224488    0.068823    0.457983    -0.086538   1.102412   
C64       C         0.286642    0.415117    0.199148    0.111017    0.959322   
C65       C         0.215518    0.464681    0.506495    -0.080844   1.056454   
C66       C         0.238445    0.515150    0.441380    -0.073586   1.068273   
C67       C         0.252830    0.913166    0.418219    0.196194    0.992507   
C68       C         0.310525    0.870718    0.257114    -0.151180   1.094627   
C69       C         0.228068    0.934491    0.502441    -0.170589   1.130300   
C70       C         0.293664    0.947762    0.271804    -0.058379   1.039800   
C71       C         0.263718    0.971436    0.353138    0.021465    1.027226   
C72       C         0.295342    0.816691    0.323100    0.112595    0.997377   
C73       C         0.586834    0.752830    0.668220    0.196164    0.992527   
C74       C         0.449703    0.747118    0.624506    -0.057276   1.066634   
C75       C         0.097486    0.749298    0.594103    0.199196    0.986819   
C76       C         0.629283    0.810525    0.507114    -0.151057   1.094553   
C77       C         0.386651    0.749712    0.557582    0.574161    0.861466   
C78       C         0.565509    0.728068    0.752441    -0.170552   1.130289   
C79       C         0.004137    0.794984    0.456622    -0.141181   1.060618   
C80       C         0.015233    0.755958    0.607256    0.024571    1.025704   
C81       C         0.146731    0.726581    0.662846    -0.147957   1.138271   
C82       C         0.115785    0.709700    0.742925    -0.060147   1.062706   
C83       C         0.488650    0.714743    0.772003    -0.049572   1.032630   
C84       C         0.552239    0.793664    0.521804    -0.058444   1.039876   
C85       C         0.431177    0.724488    0.707983    -0.086482   1.102359   
C86       C         0.528564    0.763718    0.603138    0.021410    1.027225   
C87       C         0.683309    0.795342    0.573100    0.112505    0.997418   
C88       C         0.084883    0.786643    0.449148    0.110995    0.959339   
C89       C         0.035319    0.715518    0.756495    -0.080855   1.056463   
C90       C         0.900723    0.743242    0.715616    0.563891    0.853965   
C91       C         0.969779    0.780316    0.535675    -0.062399   1.075077   
C92       C         0.984850    0.738445    0.691380    -0.073574   1.068256   
C93       C         0.747170    0.086834    0.918219    0.196182    0.992519   
C94       C         0.689475    0.129282    0.757114    -0.151162   1.094623   
C95       C         0.706336    0.052238    0.771804    -0.058388   1.039802   
C96       C         0.736282    0.028564    0.853138    0.021466    1.027225   
C97       C         0.704658    0.183309    0.823099    0.112596    0.997342   
C98       C         0.785257    0.988651    0.022003    -0.049571   1.032629   
C99       C         0.756759    0.400724    0.965616    0.563921    0.853951   
C100      C         0.752882    0.949703    0.874506    -0.057289   1.066655   
C101      C         0.750702    0.597486    0.844103    0.199148    0.986837   
C102      C         0.750288    0.886651    0.807582    0.574113    0.861480   
C103      C         0.705017    0.504137    0.706623    -0.141222   1.060702   
C104      C         0.744043    0.515233    0.857256    0.024586    1.025689   
C105      C         0.719684    0.469779    0.785676    -0.062396   1.075060   
C106      C         0.773420    0.646731    0.912847    -0.147990   1.138271   
C107      C         0.790300    0.615785    0.992926    -0.060087   1.062690   
C108      C         0.775512    0.931177    0.957983    -0.086499   1.102355   
C109      C         0.713358    0.584883    0.699148    0.111001    0.959344   
C110      C         0.784483    0.535319    0.006496    -0.080936   1.056483   
C111      C         0.761555    0.484850    0.941380    -0.073546   1.068258   
C112      C         0.771932    0.065509    0.002441    -0.170571   1.130296   
C113      C         0.599276    0.243241    0.534384    0.563921    0.853951   
C114      C         0.050297    0.247118    0.625494    -0.057289   1.066656   
C115      C         0.402514    0.249298    0.655897    0.199148    0.986836   
C116      C         0.113349    0.249712    0.692418    0.574113    0.861480   
C117      C         0.495863    0.294983    0.793377    -0.141223   1.060702   
C118      C         0.484767    0.255957    0.642744    0.024586    1.025689   
C119      C         0.530221    0.280316    0.714324    -0.062396   1.075060   
C120      C         0.353269    0.226580    0.587153    -0.147990   1.138271   
C121      C         0.384215    0.209700    0.507074    -0.060087   1.062690   
C122      C         0.011349    0.214743    0.477997    -0.049570   1.032627   
C123      C         0.068823    0.224488    0.542017    -0.086499   1.102356   
C124      C         0.415117    0.286642    0.800852    0.111001    0.959344   
C125      C         0.464681    0.215517    0.493504    -0.080936   1.056483   
C126      C         0.515150    0.238445    0.558620    -0.073546   1.068258   
C127      C         0.913166    0.252830    0.581781    0.196183    0.992519   
C128      C         0.870718    0.310525    0.742886    -0.151162   1.094623   
C129      C         0.934491    0.228068    0.497559    -0.170570   1.130291   
C130      C         0.947762    0.293664    0.728196    -0.058388   1.039802   
C131      C         0.971436    0.263718    0.646862    0.021466    1.027225   
C132      C         0.816691    0.295342    0.676901    0.112595    0.997342   
C133      C         0.086834    0.747170    0.081781    0.196194    0.992507   
C134      C         0.129282    0.689475    0.242886    -0.151180   1.094626   
C135      C         0.052238    0.706336    0.228196    -0.058379   1.039800   
C136      C         0.028564    0.736282    0.146862    0.021464    1.027226   
C137      C         0.183309    0.704658    0.176900    0.112595    0.997377   
C138      C         0.400723    0.756758    0.034384    0.563902    0.853960   
C139      C         0.949703    0.752882    0.125494    -0.057294   1.066653   
C140      C         0.597485    0.750702    0.155897    0.199070    0.986842   
C141      C         0.886651    0.750288    0.192419    0.574201    0.861462   
C142      C         0.504136    0.705016    0.293378    -0.141230   1.060629   
C143      C         0.515232    0.744042    0.142744    0.024706    1.025676   
C144      C         0.469779    0.719684    0.214325    -0.062383   1.075063   
C145      C         0.646731    0.773419    0.087154    -0.148065   1.138333   
C146      C         0.615784    0.790300    0.007075    -0.060077   1.062676   
C147      C         0.931177    0.775512    0.042017    -0.086538   1.102412   
C148      C         0.584883    0.713357    0.300852    0.111007    0.959323   
C149      C         0.535319    0.784482    0.993505    -0.080844   1.056454   
C150      C         0.484850    0.761555    0.058620    -0.073586   1.068273   
C151      C         0.988650    0.785257    0.977997    -0.049529   1.032616   
C152      C         0.256758    0.099277    0.784384    0.563891    0.853965   
C153      C         0.219684    0.030221    0.964325    -0.062402   1.075079   
C154      C         0.261555    0.015150    0.808620    -0.073574   1.068256   
C155      C         0.205016    0.995863    0.043378    -0.141179   1.060616   
C156      C         0.213357    0.915117    0.050852    0.110996    0.959339   
C157      C         0.247170    0.413166    0.831780    0.196164    0.992527   
C158      C         0.252882    0.550297    0.875494    -0.057277   1.066635   
C159      C         0.250702    0.902514    0.905897    0.199196    0.986819   
C160      C         0.189475    0.370717    0.992886    -0.151057   1.094552   
C161      C         0.250288    0.613349    0.942418    0.574161    0.861466   
C162      C         0.271932    0.434491    0.747559    -0.170552   1.130289   
C163      C         0.244042    0.984767    0.892744    0.024572    1.025704   
C164      C         0.273419    0.853269    0.837154    -0.147957   1.138271   
C165      C         0.290300    0.884215    0.757075    -0.060148   1.062706   
C166      C         0.285257    0.511350    0.727997    -0.049572   1.032630   
C167      C         0.206336    0.447761    0.978196    -0.058444   1.039875   
C168      C         0.275512    0.568823    0.792017    -0.086482   1.102359   
C169      C         0.236282    0.471436    0.896862    0.021410    1.027225   
C170      C         0.204658    0.316691    0.926900    0.112505    0.997418   
C171      C         0.284482    0.964681    0.743505    -0.080854   1.056463   
C172      C         0.752830    0.586834    0.331781    0.196292    0.992458   
C173      C         0.747117    0.449703    0.375494    -0.057261   1.066645   
C174      C         0.749298    0.097486    0.405898    0.199101    0.986840   
C175      C         0.810525    0.629282    0.492886    -0.151165   1.094620   
C176      C         0.749712    0.386651    0.442419    0.574142    0.861479   
C177      C         0.728068    0.565509    0.247560    -0.170670   1.130407   
C178      C         0.794984    0.004137    0.543378    -0.141198   1.060629   
C179      C         0.755958    0.015232    0.392744    0.024564    1.025704   
C180      C         0.726581    0.146731    0.337154    -0.148044   1.138340   
C181      C         0.709700    0.115785    0.257075    -0.060133   1.062692   
C182      C         0.714743    0.488650    0.227997    -0.049526   1.032594   
C183      C         0.793664    0.552238    0.478196    -0.058386   1.039799   
C184      C         0.724488    0.431177    0.292017    -0.086542   1.102408   
C185      C         0.763718    0.528564    0.396862    0.021429    1.027227   
C186      C         0.795342    0.683309    0.426901    0.112601    0.997337   
C187      C         0.786643    0.084883    0.550852    0.111016    0.959327   
C188      C         0.715517    0.035319    0.243505    -0.080851   1.056439   
C189      C         0.743241    0.900724    0.284384    0.563920    0.853946   
C190      C         0.780316    0.969779    0.464325    -0.062381   1.075078   
C191      C         0.738445    0.984850    0.308620    -0.073522   1.068265   
C192      C         0.065509    0.771932    0.997559    -0.170589   1.130300   
H193      H         0.092500    0.213764    0.044965    0.117054    0.285035   
H194      H         0.389669    0.278302    0.301719    0.116987    0.311492   
H195      H         0.791164    0.277967    0.150881    0.126652    0.285913   
H196      H         0.846576    0.307877    0.296376    0.110321    0.289708   
H197      H         0.528904    0.302139    0.337278    0.116768    0.317216   
H198      H         0.629397    0.286466    0.223737    0.112909    0.269169   
H199      H         0.254933    0.193364    0.064101    0.089832    0.290282   
H200      H         0.989321    0.298227    0.319671    0.111202    0.320939   
H201      H         0.350080    0.165595    0.945808    0.124441    0.309788   
H202      H         0.491419    0.197227    0.971805    0.121496    0.309008   
H203      H         0.885975    0.201970    0.887616    0.079465    0.339913   
H204      H         0.311556    0.529863    0.149881    0.137288    0.307208   
H205      H         0.286237    0.592500    0.294965    0.117048    0.285037   
H206      H         0.222033    0.291165    0.400882    0.126643    0.285966   
H207      H         0.192124    0.346576    0.546376    0.110297    0.289718   
H208      H         0.197862    0.028904    0.587278    0.116763    0.317222   
H209      H         0.213534    0.129397    0.473737    0.112910    0.269180   
H210      H         0.298029    0.385975    0.137616    0.079480    0.339910   
H211      H         0.201773    0.489321    0.569671    0.111206    0.320935   
H212      H         0.334405    0.850080    0.195808    0.124443    0.309787   
H213      H         0.221699    0.889669    0.551719    0.116985    0.311497   
H214      H         0.302773    0.991419    0.221805    0.121497    0.309011   
H215      H         0.306636    0.754933    0.314101    0.089809    0.290277   
H216      H         0.649920    0.834405    0.445808    0.124451    0.309779   
H217      H         0.610331    0.721698    0.801720    0.116949    0.311516   
H218      H         0.208836    0.722033    0.650882    0.126636    0.285930   
H219      H         0.153424    0.692123    0.796376    0.110318    0.289708   
H220      H         0.471097    0.697861    0.837279    0.116756    0.317226   
H221      H         0.508581    0.802773    0.471805    0.121515    0.308997   
H222      H         0.370604    0.713534    0.723737    0.112898    0.269180   
H223      H         0.745067    0.806636    0.564102    0.089849    0.290262   
H224      H         0.114026    0.798030    0.387617    0.079474    0.339910   
H225      H         0.010679    0.701773    0.819671    0.111207    0.320935   
H226      H         0.970137    0.811556    0.399881    0.137255    0.307220   
H227      H         0.907500    0.786237    0.544965    0.117068    0.285033   
H228      H         0.665595    0.149919    0.695808    0.124427    0.309790   
H229      H         0.697227    0.008580    0.721805    0.121500    0.309010   
H230      H         0.693364    0.245067    0.814101    0.089837    0.290264   
H231      H         0.807877    0.653424    0.046376    0.110313    0.289698   
H232      H         0.802138    0.971097    0.087279    0.116770    0.317210   
H233      H         0.798227    0.510679    0.069672    0.111268    0.320920   
H234      H         0.688444    0.470137    0.649881    0.137267    0.307211   
H235      H         0.713764    0.407500    0.794966    0.117070    0.285031   
H236      H         0.777967    0.708836    0.900882    0.126626    0.285948   
H237      H         0.786466    0.870604    0.973738    0.112906    0.269187   
H238      H         0.701971    0.614026    0.637617    0.079490    0.339903   
H239      H         0.029863    0.188444    0.899881    0.137247    0.307226   
H240      H         0.778301    0.110332    0.051719    0.116968    0.311511   
H241      H         0.529863    0.311556    0.850119    0.137267    0.307211   
H242      H         0.592500    0.286236    0.705034    0.117070    0.285031   
H243      H         0.291164    0.222033    0.599118    0.126626    0.285948   
H244      H         0.346576    0.192123    0.453624    0.110313    0.289698   
H245      H         0.028903    0.197862    0.412721    0.116770    0.317210   
H246      H         0.129396    0.213534    0.526262    0.112906    0.269188   
H247      H         0.385974    0.298029    0.862383    0.079490    0.339903   
H248      H         0.489321    0.201773    0.430328    0.111269    0.320919   
H249      H         0.850081    0.334405    0.804192    0.124427    0.309790   
H250      H         0.889668    0.221698    0.448281    0.116958    0.311516   
H251      H         0.991420    0.302773    0.778195    0.121500    0.309011   
H252      H         0.754933    0.306636    0.685899    0.089837    0.290264   
H253      H         0.149920    0.665595    0.304192    0.124443    0.309787   
H254      H         0.008581    0.697227    0.278195    0.121497    0.309011   
H255      H         0.245067    0.693364    0.185899    0.089809    0.290276   
H256      H         0.470137    0.688444    0.350119    0.137279    0.307214   
H257      H         0.407500    0.713763    0.205035    0.117049    0.285037   
H258      H         0.708835    0.777967    0.099118    0.126643    0.285966   
H259      H         0.870603    0.786466    0.026263    0.112911    0.269180   
H260      H         0.614025    0.701971    0.362384    0.079476    0.339903   
H261      H         0.653424    0.807876    0.953624    0.110297    0.289718   
H262      H         0.971096    0.802138    0.912722    0.116763    0.317221   
H263      H         0.510679    0.798227    0.930329    0.111206    0.320935   
H264      H         0.213763    0.092500    0.955035    0.117068    0.285033   
H265      H         0.165595    0.350080    0.054192    0.124451    0.309777   
H266      H         0.197227    0.491419    0.028195    0.121515    0.308995   
H267      H         0.201970    0.885974    0.112383    0.079474    0.339910   
H268      H         0.278302    0.389669    0.698280    0.116949    0.311516   
H269      H         0.277967    0.791164    0.849118    0.126635    0.285930   
H270      H         0.307877    0.846576    0.703624    0.110318    0.289707   
H271      H         0.302139    0.528903    0.662721    0.116756    0.317226   
H272      H         0.286466    0.629396    0.776263    0.112898    0.269180   
H273      H         0.193364    0.254933    0.935898    0.089849    0.290262   
H274      H         0.298227    0.989321    0.680329    0.111207    0.320935   
H275      H         0.834405    0.649920    0.554192    0.124440    0.309788   
H276      H         0.721698    0.610331    0.198281    0.116987    0.311491   
H277      H         0.722033    0.208836    0.349119    0.126650    0.285913   
H278      H         0.692123    0.153424    0.203624    0.110320    0.289708   
H279      H         0.697861    0.471096    0.162722    0.116769    0.317216   
H280      H         0.802773    0.508581    0.528195    0.121496    0.309009   
H281      H         0.713534    0.370603    0.276263    0.112909    0.269169   
H282      H         0.806636    0.745067    0.435899    0.089832    0.290282   
H283      H         0.798030    0.114025    0.612384    0.079466    0.339913   
H284      H         0.701773    0.010679    0.180329    0.111202    0.320940   
H285      H         0.811556    0.970137    0.600119    0.137248    0.307225   
H286      H         0.786236    0.907500    0.455035    0.117057    0.285034   
H287      H         0.110331    0.778301    0.948281    0.116985    0.311497   
H288      H         0.188444    0.029863    0.100119    0.137255    0.307220   
Zn289     Zn        0.247030    0.253088    0.237463    0.750771    2.340792   
Zn290     Zn        0.753088    0.252970    0.987463    0.750784    2.340787   
Zn291     Zn        0.246912    0.747030    0.487464    0.750717    2.340849   
Zn292     Zn        0.752971    0.746912    0.737464    0.750803    2.340718   
Zn293     Zn        0.253088    0.247029    0.762536    0.750803    2.340718   
Zn294     Zn        0.747030    0.246912    0.512537    0.750784    2.340786   
Zn295     Zn        0.252970    0.753088    0.012536    0.750717    2.340849   
Zn296     Zn        0.746912    0.752970    0.262537    0.750770    2.340797   
N297      N         0.869895    0.235023    0.014714    -0.282442   1.133815   
N298      N         0.336428    0.232949    0.150113    -0.280090   1.141312   
N299      N         0.732948    0.163572    0.900113    -0.280073   1.141304   
N300      N         0.264977    0.369896    0.264714    -0.282491   1.133833   
N301      N         0.267052    0.836428    0.400114    -0.280061   1.141311   
N302      N         0.130105    0.764977    0.514715    -0.282547   1.133853   
N303      N         0.663573    0.767052    0.650114    -0.280051   1.141315   
N304      N         0.735023    0.630105    0.764715    -0.282533   1.133857   
N305      N         0.369895    0.264977    0.735285    -0.282533   1.133856   
N306      N         0.232948    0.336427    0.849886    -0.280051   1.141315   
N307      N         0.836428    0.267052    0.599887    -0.280073   1.141304   
N308      N         0.163572    0.732948    0.099886    -0.280060   1.141311   
N309      N         0.630104    0.735023    0.235286    -0.282501   1.133833   
N310      N         0.767051    0.663572    0.349887    -0.280089   1.141310   
N311      N         0.235023    0.869895    0.985285    -0.282547   1.133853   
N312      N         0.764977    0.130105    0.485286    -0.282432   1.133808   
