data_DONNIE

_cell_length_a     17.287
_cell_length_b     6.727
_cell_length_c     12.461
_cell_angle_alpha  90.0
_cell_angle_beta   90.0
_cell_angle_gamma  90.0
_cell_volume       1449.08532

_symmetry_cell_setting          triclinic
_symmetry_space_group_name_Hall 'P1'
_symmetry_space_group_name_H-M  'P1'
_symmetry_Int_Tables_number     1

loop_
_symmetry_equiv_pos_as_xyz
 'x,y,z'

loop_
_atom_site_label
_atom_site_type_symbol
_atom_site_fract_x
_atom_site_fract_y
_atom_site_fract_z
_atom_site_charge
_atom_site_polarization

O1        O         0.583784    0.080701    0.897919    -0.503209   1.039967   
O2        O         0.083783    0.580702    0.397918    -0.503208   1.039959   
O3        O         0.416217    0.419299    0.897919    -0.503222   1.039981   
O4        O         0.916217    0.919297    0.397918    -0.503327   1.040049   
O5        O         0.416217    0.580704    0.102084    -0.503386   1.040049   
O6        O         0.916217    0.080702    0.602083    -0.503341   1.040073   
O7        O         0.583783    0.919297    0.102084    -0.503391   1.040050   
O8        O         0.083783    0.419298    0.602083    -0.503316   1.040037   
O9        O         0.416217    0.919297    0.102084    -0.503391   1.040054   
O10       O         0.916217    0.419299    0.602084    -0.503336   1.040065   
O11       O         0.583783    0.580704    0.102084    -0.503391   1.040051   
O12       O         0.083783    0.080702    0.602083    -0.503311   1.040038   
O13       O         0.583783    0.419299    0.897919    -0.503212   1.039989   
O14       O         0.083783    0.919298    0.397918    -0.503196   1.039950   
O15       O         0.416217    0.080701    0.897918    -0.503215   1.039959   
O16       O         0.916217    0.580702    0.397918    -0.503248   1.039966   
O17       O         0.500000    0.250000    0.067257    -0.643266   1.257636   
O18       O         0.999999    0.750000    0.567251    -0.643364   1.257632   
O19       O         0.500000    0.750000    0.932746    -0.643681   1.257755   
O20       O         0.000001    0.250000    0.432742    -0.643275   1.257607   
C21       C         0.715865    0.068195    0.778980    -0.088386   1.056078   
C22       C         0.215866    0.568195    0.278980    -0.088378   1.056066   
C23       C         0.284134    0.431805    0.778980    -0.088347   1.056041   
C24       C         0.784134    0.931805    0.278980    -0.088373   1.056065   
C25       C         0.284134    0.568195    0.221019    -0.088365   1.056049   
C26       C         0.784133    0.068194    0.721019    -0.088377   1.056029   
C27       C         0.715866    0.931806    0.221019    -0.088359   1.056047   
C28       C         0.215866    0.431805    0.721019    -0.088356   1.056047   
C29       C         0.284134    0.931805    0.221019    -0.088368   1.056050   
C30       C         0.784133    0.431805    0.721019    -0.088380   1.056038   
C31       C         0.715866    0.568195    0.221019    -0.088364   1.056053   
C32       C         0.215866    0.068195    0.721019    -0.088359   1.056049   
C33       C         0.715865    0.431805    0.778980    -0.088385   1.056074   
C34       C         0.215866    0.931805    0.278980    -0.088374   1.056063   
C35       C         0.284134    0.068195    0.778980    -0.088344   1.056044   
C36       C         0.784134    0.568195    0.278980    -0.088372   1.056067   
C37       C         0.682409    0.250000    0.807739    -0.020918   1.021168   
C38       C         0.610857    0.250000    0.873039    0.602369    0.830847   
C39       C         0.182410    0.750000    0.307738    -0.020926   1.021154   
C40       C         0.110858    0.750000    0.373037    0.602289    0.830892   
C41       C         0.317591    0.250000    0.807739    -0.021062   1.021266   
C42       C         0.389143    0.250000    0.873038    0.602422    0.830839   
C43       C         0.817590    0.750000    0.307738    -0.020958   1.021161   
C44       C         0.889142    0.750000    0.373037    0.602458    0.830840   
C45       C         0.317589    0.750000    0.192262    -0.020995   1.021220   
C46       C         0.389142    0.750000    0.126964    0.602592    0.830753   
C47       C         0.817590    0.250000    0.692261    -0.020992   1.021247   
C48       C         0.889142    0.250000    0.626964    0.602552    0.830760   
C49       C         0.682411    0.750000    0.192262    -0.020963   1.021210   
C50       C         0.610858    0.750000    0.126965    0.602583    0.830757   
C51       C         0.182410    0.250000    0.692261    -0.020992   1.021218   
C52       C         0.110858    0.250000    0.626963    0.602522    0.830799   
H53       H         0.687403    0.930850    0.803233    0.119092    0.289044   
H54       H         0.187404    0.430851    0.303233    0.119110    0.289049   
H55       H         0.312597    0.569149    0.803233    0.119092    0.289050   
H56       H         0.812597    0.069148    0.303233    0.119103    0.289041   
H57       H         0.312597    0.430852    0.196766    0.119105    0.289037   
H58       H         0.812596    0.930851    0.696766    0.119121    0.289047   
H59       H         0.687404    0.069148    0.196767    0.119103    0.289031   
H60       H         0.187404    0.569149    0.696766    0.119106    0.289048   
H61       H         0.312597    0.069148    0.196766    0.119107    0.289036   
H62       H         0.812596    0.569149    0.696767    0.119115    0.289048   
H63       H         0.687404    0.430852    0.196767    0.119104    0.289032   
H64       H         0.187404    0.930851    0.696766    0.119107    0.289047   
H65       H         0.687403    0.569149    0.803233    0.119091    0.289043   
H66       H         0.187404    0.069149    0.303233    0.119111    0.289049   
H67       H         0.312597    0.930851    0.803233    0.119092    0.289051   
H68       H         0.812597    0.430852    0.303233    0.119103    0.289044   
Ga69      Ga        0.500000    0.999973    0.999995    1.370733    1.671593   
Ga70      Ga        0.000000    0.500006    0.500002    1.370544    1.671740   
Ga71      Ga        0.500000    0.500028    0.999995    1.370709    1.671592   
Ga72      Ga        0.000000    0.999994    0.500002    1.370546    1.671734   
