data_BEPVID

_cell_length_a     11.4569
_cell_length_b     10.770333
_cell_length_c     11.627944
_cell_angle_alpha  90.176
_cell_angle_beta   115.705
_cell_angle_gamma  110.147
_cell_volume       1434.82583

_symmetry_cell_setting          triclinic
_symmetry_space_group_name_Hall 'P1'
_symmetry_space_group_name_H-M  'P1'
_symmetry_Int_Tables_number     1

loop_
_symmetry_equiv_pos_as_xyz
 'x,y,z'

loop_
_atom_site_label
_atom_site_type_symbol
_atom_site_fract_x
_atom_site_fract_y
_atom_site_fract_z
_atom_site_charge
_atom_site_polarization

Cu1       Cu        0.827277    0.882933    0.584194    0.299090    2.228511   
Cu2       Cu        0.133895    0.038736    0.998064    0.274354    2.273446   
Cu3       Cu        0.350091    0.807888    0.290364    0.318949    2.203959   
Cu4       Cu        0.172720    0.117068    0.415805    0.299054    2.228559   
Cu5       Cu        0.866111    0.961264    0.001940    0.274383    2.273366   
Cu6       Cu        0.649908    0.192110    0.709638    0.318869    2.204123   
H7        H         0.585458    0.357299    0.392445    0.137529    0.284385   
H8        H         0.544072    0.490190    0.407135    0.141832    0.281581   
H9        H         0.468295    0.347496    0.449176    0.140157    0.291005   
H10       H         0.363380    0.153325    0.227095    0.280840    0.235176   
H11       H         0.120696    0.915609    0.714799    0.281896    0.240236   
H12       H         0.997677    0.329994    0.008063    0.141867    0.302430   
H13       H         0.118966    0.415062    0.958529    0.129738    0.287882   
H14       H         0.035395    0.246535    0.920570    0.138801    0.307510   
H15       H         0.407827    0.594109    0.286749    0.115269    0.314773   
H16       H         0.267001    0.573300    0.151000    0.111963    0.345712   
H17       H         0.119690    0.334682    0.280801    0.115415    0.317570   
H18       H         0.979028    0.359968    0.375805    0.092248    0.311307   
H19       H         0.998051    0.578199    0.431946    0.109060    0.314716   
H20       H         0.110883    0.832823    0.316223    0.127842    0.294427   
H21       H         0.274802    0.861188    0.432277    0.109848    0.319667   
H22       H         0.348859    0.810896    0.721959    0.133277    0.295376   
H23       H         0.399166    0.905004    0.628714    0.147844    0.296556   
H24       H         0.389034    0.976252    0.742217    0.148458    0.332590   
H25       H         0.762643    0.798045    0.343303    0.138099    0.306941   
H26       H         0.871374    0.830468    0.273286    0.140379    0.307022   
H27       H         0.808736    0.677676    0.304280    0.133995    0.278134   
H28       H         0.414543    0.642700    0.607556    0.137526    0.284395   
H29       H         0.455931    0.509810    0.592866    0.141819    0.281584   
H30       H         0.531707    0.652505    0.550825    0.140149    0.291045   
H31       H         0.636623    0.846674    0.772907    0.280811    0.235172   
H32       H         0.879303    0.084392    0.285200    0.281916    0.240286   
H33       H         0.002324    0.670006    0.991939    0.141866    0.302439   
H34       H         0.881036    0.584938    0.041473    0.129721    0.287898   
H35       H         0.964605    0.753465    0.079432    0.138780    0.307512   
H36       H         0.592174    0.405891    0.713251    0.115288    0.314755   
H37       H         0.733002    0.426701    0.849001    0.111959    0.345695   
H38       H         0.880309    0.665320    0.719198    0.115394    0.317591   
H39       H         0.020972    0.640034    0.624193    0.092227    0.311349   
H40       H         0.001947    0.421800    0.568050    0.109095    0.314691   
H41       H         0.889116    0.167179    0.683777    0.127834    0.294423   
H42       H         0.725196    0.138814    0.567722    0.109849    0.319660   
H43       H         0.651139    0.189104    0.278042    0.133267    0.295372   
H44       H         0.600831    0.094990    0.371283    0.147836    0.296558   
H45       H         0.610967    0.023749    0.257779    0.148383    0.332625   
H46       H         0.237358    0.201958    0.656696    0.138033    0.306989   
H47       H         0.128626    0.169533    0.726713    0.140382    0.307001   
H48       H         0.191262    0.322327    0.695719    0.134056    0.278107   
C49       C         0.500647    0.386744    0.384823    -0.421652   1.117244   
C50       C         0.380673    0.342890    0.266653    0.197605    0.997614   
C51       C         0.293862    0.401998    0.197573    -0.123284   1.099346   
C52       C         0.198204    0.314543    0.093426    0.205505    1.000172   
C53       C         0.081928    0.327608    0.989630    -0.418527   1.127148   
C54       C         0.299053    0.529653    0.228358    -0.237687   1.117513   
C55       C         0.209802    0.534568    0.284799    0.267303    0.992516   
C56       C         0.124253    0.427617    0.305657    -0.191042   1.120442   
C57       C         0.046614    0.442302    0.358694    -0.022139   1.059616   
C58       C         0.056908    0.562977    0.390106    -0.205686   1.116612   
C59       C         0.144651    0.666566    0.367664    0.273079    0.991424   
C60       C         0.162328    0.800961    0.397405    -0.248855   1.165859   
C61       C         0.338985    0.890665    0.676971    -0.426116   1.103108   
C62       C         0.189873    0.866862    0.597766    0.203495    1.009941   
C63       C         0.110479    0.825487    0.478649    -0.126180   1.168414   
C64       C         0.973795    0.818459    0.451283    0.193490    1.046191   
C65       C         0.847166    0.779206    0.336916    -0.417677   1.099101   
C66       C         0.015662    0.983701    0.844070    -0.135147   1.304567   
C67       C         0.286436    0.897856    0.177032    -0.161620   1.294767   
C68       C         0.646303    0.851359    0.478500    -0.140689   1.281129   
C69       C         0.499354    0.613257    0.615177    -0.421621   1.117182   
C70       C         0.619328    0.657109    0.733348    0.197525    0.997656   
C71       C         0.706140    0.598003    0.802428    -0.123110   1.099265   
C72       C         0.801797    0.685456    0.906575    0.205319    1.000245   
C73       C         0.918073    0.672392    0.010372    -0.418422   1.127036   
C74       C         0.700948    0.470348    0.771643    -0.237780   1.117596   
C75       C         0.790197    0.465430    0.715200    0.267273    0.992555   
C76       C         0.875745    0.572383    0.694342    -0.191013   1.120436   
C77       C         0.953386    0.557699    0.641306    -0.022099   1.059570   
C78       C         0.943090    0.437023    0.609891    -0.205779   1.116730   
C79       C         0.855347    0.333434    0.632335    0.273140    0.991420   
C80       C         0.837671    0.199039    0.602594    -0.248839   1.165851   
C81       C         0.661014    0.109334    0.323028    -0.426004   1.103019   
C82       C         0.810126    0.133138    0.402233    0.203447    1.009952   
C83       C         0.889520    0.174512    0.521350    -0.126218   1.168449   
C84       C         0.026205    0.181543    0.548716    0.193419    1.046210   
C85       C         0.152834    0.220797    0.663084    -0.417658   1.099086   
C86       C         0.984344    0.016298    0.155931    -0.135094   1.304519   
C87       C         0.713561    0.102142    0.822968    -0.161575   1.294754   
C88       C         0.353697    0.148641    0.521501    -0.140703   1.281206   
N89       N         0.224917    0.208663    0.098667    -0.186314   1.096043   
N90       N         0.335424    0.228219    0.203535    -0.152270   0.957031   
N91       N         0.219046    0.651646    0.315332    -0.297352   1.162238   
N92       N         0.101496    0.882638    0.634423    -0.149545   0.947644   
N93       N         0.970125    0.854174    0.547457    -0.204960   1.134683   
N94       N         0.942714    0.945585    0.744227    -0.332592   1.294783   
N95       N         0.241128    0.956751    0.107475    -0.311032   1.304771   
N96       N         0.531527    0.834189    0.407334    -0.338892   1.285449   
N97       N         0.775084    0.791337    0.901335    -0.186310   1.096023   
N98       N         0.664577    0.771782    0.796467    -0.152140   0.956984   
N99       N         0.780952    0.348352    0.684668    -0.297295   1.162180   
N100      N         0.898504    0.117361    0.365576    -0.149553   0.947625   
N101      N         0.029874    0.145826    0.452542    -0.204831   1.134602   
N102      N         0.057286    0.054412    0.255771    -0.332642   1.294731   
N103      N         0.758868    0.043245    0.892524    -0.311050   1.304730   
N104      N         0.468473    0.165810    0.592669    -0.338850   1.285315   
